*Heading
** Job name: Job-2 Model name: Model-1
** Generated by: Abaqus/CAE 2020
*Preprint, echo=NO, model=NO, history=NO, contact=NO
**
** PARTS
**
*Part, name=Part-1
*Node
      1,           0.,          3.5
      2,           0.,           4.
      3,          -2.,   3.46410155
      4,  -2.82842708,   2.82842708
      5,  -3.46410155,           2.
      6,  -3.03108883,         1.75
      7,   3.03108883,         1.75
      8,           2.,   3.46410155
      9,   2.82842708,   2.82842708
     10,   3.46410155,           2.
     11,  -3.86370325,   1.03527617
     12,          -4.,           0.
     13,  -3.86370325,  -1.03527617
     14,  -3.46410155,          -2.
     15,  -3.03108883,        -1.75
     16,          3.5,           0.
     17,   3.03108883,        -1.75
     18,   3.86370325,   1.03527617
     19,           4.,           0.
     20,   3.86370325,  -1.03527617
** ... 8212 like lines cut
*Element, type=CPS4R
   1,    1,   28, 1249,  243
   2,   28,   29, 1250, 1249
   3,   29,   30, 1251, 1250
   4,   30,   31, 1252, 1251
   5,   31,   32, 1253, 1252
   6,   32,   33, 1254, 1253
   7,   33,   34, 1255, 1254
   8,   34,   35, 1256, 1255
   9,   35,   36, 1257, 1256
  10,   36,   37, 1258, 1257
  11,   37,   38, 1259, 1258
  12,   38,   39, 1260, 1259
  13,   39,    2,   40, 1260
  14,  243, 1249, 1261,  242
  15, 1249, 1250, 1262, 1261
  16, 1250, 1251, 1263, 1262
  17, 1251, 1252, 1264, 1263
  18, 1252, 1253, 1265, 1264
  19, 1253, 1254, 1266, 1265
  20, 1254, 1255, 1267, 1266
** ... 7624 like lines cut
*Nset, nset=Set-1
    1,    2,    3,    4,    5,    6,    7,    8,    9,   10,   28,   29,   30,   31,   32,   33
   34,   35,   36,   37,   38,   39,   40,   41,   42,   43,   44,   45,   46,   47,   48,   49
   50,   51,   52,   53,   54,   55,   56,   57,   58,   59,   60,   61,   62,   63,   64,   65
   66,   67,   68,   69,   70,   71,   72,   73,   74,   75,   76,   77,   78,   79,   80,   81
   82,   83,   84,   85,   86,   87,   88,   89,   90,   91,   92,   93,   94,   95,   96,   97
   98,   99,  100,  101,  102,  103,  104,  105,  106,  107,  108,  109,  110,  111,  112,  113
  114,  115,  116,  117,  118,  119,  120,  121,  122,  123,  124,  125,  126,  127,  128,  129
  130,  131,  132,  133,  134,  135,  136,  137,  138,  139,  140,  141,  142,  143,  144,  145
  146,  147,  148,  149,  150,  151,  152,  153,  154,  155,  156,  157,  158,  159,  160,  161
  162,  163,  164,  165,  166,  167,  168,  169,  170,  171,  172,  173,  174,  175,  176,  177
  178,  179,  180,  181,  182,  183,  184,  185,  186,  187,  188,  189,  190,  191,  192,  193
  194,  195,  196,  197,  198,  199,  200,  201,  202,  203,  204,  205,  206,  207,  208,  209
  210,  211,  212,  213,  214,  215,  216,  217,  218,  219,  220,  221,  222,  223,  224,  225
  226,  227,  228,  229,  230,  231,  232,  233,  234,  235,  236,  237,  238,  239,  240,  241
  242,  243,  244,  245,  246,  247,  248,  249,  250,  251,  252,  253,  254,  255,  256,  257
  258,  259,  260,  261,  262,  263,  264,  265,  266,  267,  268,  269,  270,  271,  272,  273
  274,  275,  276,  277,  278,  279,  280,  281,  282,  283,  284,  285,  286,  287,  288,  289
  290,  291,  292,  293,  294,  295,  296,  297,  298,  299,  300,  301,  302,  303,  304,  305
  306,  307,  308,  309,  310,  311,  312,  313,  314,  315,  316,  317,  318,  319,  320,  321
  322,  323,  324,  325,  326,  327,  328,  329,  330,  331,  332,  333,  334,  335,  336,  337
** ... 153 like lines cut
*Elset, elset=Set-1, generate
    1,  2548,     1
*Nset, nset=Set-2
    5,    6,    7,   10,   11,   12,   13,   14,   15,   16,   17,   18,   19,   20,   21,   22
   23,   24,   25,  135,  136,  137,  138,  139,  140,  141,  142,  143,  144,  145,  146,  341
  342,  343,  344,  345,  346,  347,  348,  349,  350,  351,  352,  448,  449,  450,  451,  452
  453,  454,  455,  456,  457,  458,  459,  460,  461,  462,  463,  464,  465,  466,  467,  468
  469,  470,  471,  472,  473,  474,  475,  476,  477,  478,  479,  480,  481,  482,  483,  484
  485,  486,  487,  488,  489,  490,  491,  492,  493,  494,  495,  496,  497,  498,  499,  500
  501,  502,  503,  504,  505,  506,  507,  508,  509,  510,  511,  512,  513,  514,  515,  516
  517,  518,  519,  520,  521,  522,  523,  524,  525,  526,  527,  528,  529,  530,  531,  532
  533,  534,  535,  536,  537,  538,  539,  540,  541,  542,  543,  544,  545,  546,  547,  548
  549,  550,  551,  552,  553,  554,  555,  556,  557,  558,  559,  560,  561,  562,  563,  564
  565,  566,  567,  568,  569,  570,  571,  572,  573,  574,  575,  576,  577,  578,  579,  580
  581,  582,  583,  584,  585,  586,  587,  588,  589,  590,  591,  592,  593,  594,  595,  596
  597,  598,  599,  600,  601,  602,  603,  604,  605,  606,  607,  608,  609,  610,  611,  612
  613,  614,  615,  616,  617,  618,  619,  620,  621,  622,  623,  624,  625,  626,  627,  628
  629,  630,  631,  632,  633,  634,  635,  636,  637,  638,  639,  640,  641,  642,  643,  644
  645,  646,  647,  648,  649,  650,  651,  652,  653,  654,  655,  656,  657,  658,  659,  660
  661,  662,  663,  664,  665,  666,  667,  668,  669,  670,  671,  672,  673,  674,  675,  676
  677,  678,  679,  680,  681,  682,  683,  684,  685,  686,  687,  688,  689,  690,  691,  692
  693,  694,  695,  696,  697,  698,  699,  700,  701,  702,  703,  704,  705,  706,  707,  708
  709,  710,  711,  712,  713,  714,  715,  716,  717,  718,  719,  720,  721,  722,  723,  724
** ... 239 like lines cut
*Elset, elset=Set-2, generate
 2549,  6370,     1
*Nset, nset=Set-3
   17,   21,   22,   23,   26,   27,  747,  748,  749,  750,  751,  752,  753,  754,  755,  756
  757,  758,  853,  854,  855,  856,  857,  858,  859,  860,  861,  862,  863,  864, 1057, 1058
 1059, 1060, 1061, 1062, 1063, 1064, 1065, 1066, 1067, 1068, 1069, 1070, 1071, 1072, 1073, 1074
 1075, 1076, 1077, 1078, 1079, 1080, 1081, 1082, 1083, 1084, 1085, 1086, 1087, 1088, 1089, 1090
 1091, 1092, 1093, 1094, 1095, 1096, 1097, 1098, 1099, 1100, 1101, 1102, 1103, 1104, 1105, 1106
 1107, 1108, 1109, 1110, 1111, 1112, 1113, 1114, 1115, 1116, 1117, 1118, 1119, 1120, 1121, 1122
 1123, 1124, 1125, 1126, 1127, 1128, 1129, 1130, 1131, 1132, 1133, 1134, 1135, 1136, 1137, 1138
 1139, 1140, 1141, 1142, 1143, 1144, 1145, 1146, 1147, 1148, 1149, 1150, 1151, 1152, 1153, 1154
 1155, 1156, 1157, 1158, 1159, 1160, 1161, 1162, 1163, 1164, 1165, 1166, 1167, 1168, 1169, 1170
 1171, 1172, 1173, 1174, 1175, 1176, 1177, 1178, 1179, 1180, 1181, 1182, 1183, 1184, 1185, 1186
 1187, 1188, 1189, 1190, 1191, 1192, 1193, 1194, 1195, 1196, 1197, 1198, 1199, 1200, 1201, 1202
 1203, 1204, 1205, 1206, 1207, 1208, 1209, 1210, 1211, 1212, 1213, 1214, 1215, 1216, 1217, 1218
 1219, 1220, 1221, 1222, 1223, 1224, 1225, 1226, 1227, 1228, 1229, 1230, 1231, 1232, 1233, 1234
 1235, 1236, 1237, 1238, 1239, 1240, 1241, 1242, 1243, 1244, 1245, 1246, 1247, 1248, 7069, 7070
 7071, 7072, 7073, 7074, 7075, 7076, 7077, 7078, 7079, 7080, 7081, 7082, 7083, 7084, 7085, 7086
 7087, 7088, 7089, 7090, 7091, 7092, 7093, 7094, 7095, 7096, 7097, 7098, 7099, 7100, 7101, 7102
 7103, 7104, 7105, 7106, 7107, 7108, 7109, 7110, 7111, 7112, 7113, 7114, 7115, 7116, 7117, 7118
 7119, 7120, 7121, 7122, 7123, 7124, 7125, 7126, 7127, 7128, 7129, 7130, 7131, 7132, 7133, 7134
 7135, 7136, 7137, 7138, 7139, 7140, 7141, 7142, 7143, 7144, 7145, 7146, 7147, 7148, 7149, 7150
 7151, 7152, 7153, 7154, 7155, 7156, 7157, 7158, 7159, 7160, 7161, 7162, 7163, 7164, 7165, 7166
** ... 67 like lines cut
*Elset, elset=Set-3, generate
 6371,  7644,     1
** Section: Section-1
*Solid Section, elset=Set-1, material=e200
1.,
** Section: Section-1
*Solid Section, elset=Set-2, material=e200
1.,
** Section: Section-1
*Solid Section, elset=Set-3, material=e200
1.,
*End Part
**  
**
** ASSEMBLY
**
*Assembly, name=Assembly
**  
*Instance, name=Part-1-1, part=Part-1
*End Instance
**  
*Nset, nset=Set-1, instance=Part-1-1
  1,  2, 28, 29, 30, 31, 32, 33, 34, 35, 36, 37, 38, 39
*Elset, elset=Set-1, instance=Part-1-1
    1,    2,    3,    4,    5,    6,    7,    8,    9,   10,   11,   12,   13, 1275, 1276, 1277
 1278, 1279, 1280, 1281, 1282, 1283, 1284, 1285, 1286, 1287
*Nset, nset=Set-2, instance=Part-1-1
  22,  23, 853, 854, 855, 856, 857, 858, 859, 860, 861, 862, 863, 864
*Elset, elset=Set-2, instance=Part-1-1
 5097, 5098, 5099, 5100, 5101, 5102, 5103, 5104, 5105, 5106, 5107, 5108, 5109, 6371, 6372, 6373
 6374, 6375, 6376, 6377, 6378, 6379, 6380, 6381, 6382, 6383
*Nset, nset=Set-3, instance=Part-1-1
 23,
*Nset, nset=Set-4, instance=Part-1-1
 1,
*Elset, elset=_Surf-3_S2, internal, instance=Part-1-1
   13,   26,   39,   52,   65,   78,   91,  104,  117,  130,  143,  156,  169,  182,  195,  208
  221,  234,  247,  260,  273,  286,  299,  312,  325,  338,  351,  364,  377,  390,  403,  416
  429,  442,  455,  468,  481,  494,  507,  520,  533,  546,  559,  572,  585,  598,  611,  624
  637, 6383, 6396, 6409, 6422, 6435, 6448, 6461, 6474, 6487, 6500, 6513, 6526, 6539, 6552, 6565
 6578, 6591, 6604, 6617, 6630, 6643, 6656, 6669, 6682, 6695, 6708, 6721, 6734, 6747, 6760, 6773
 6786, 6799, 6812, 6825, 6838, 6851, 6864, 6877, 6890, 6903, 6916, 6929, 6942, 6955, 6968, 6981
 6994, 7007
*Elset, elset=_Surf-3_S4, internal, instance=Part-1-1
 1275, 1288, 1301, 1314, 1327, 1340, 1353, 1366, 1379, 1392, 1405, 1418, 1431, 1444, 1457, 1470
 1483, 1496, 1509, 1522, 1535, 1548, 1561, 1574, 1587, 1600, 1613, 1626, 1639, 1652, 1665, 1678
 1691, 1704, 1717, 1730, 1743, 1756, 1769, 1782, 1795, 1808, 1821, 1834, 1847, 1860, 1873, 1886
 1899, 5097, 5110, 5123, 5136, 5149, 5162, 5175, 5188, 5201, 5214, 5227, 5240, 5253, 5266, 5279
 5292, 5305, 5318, 5331, 5344, 5357, 5370, 5383, 5396, 5409, 5422, 5435, 5448, 5461, 5474, 5487
 5500, 5513, 5526, 5539, 5552, 5565, 5578, 5591, 5604, 5617, 5630, 5643, 5656, 5669, 5682, 5695
 5708, 5721
*Surface, type=ELEMENT, name=Surf-3
_Surf-3_S2, S2
_Surf-3_S4, S4
*Elset, elset=_Surf-6_S2, internal, instance=Part-1-1, generate
 2873,  3497,    13
*Elset, elset=_Surf-6_S4, internal, instance=Part-1-1, generate
 4148,  4772,    13
*Surface, type=ELEMENT, name=Surf-6
_Surf-6_S2, S2
_Surf-6_S4, S4
*Elset, elset=_Surf-7_S2, internal, instance=Part-1-1
 2561, 2574, 2587, 2600, 2613, 2626, 2639, 2652, 2665, 2678, 2691, 2704, 2717, 2730, 2743, 2756
 2769, 2782, 2795, 2808, 2821, 2834, 2847, 2860, 3510, 3523, 3536, 3549, 3562, 3575, 3588, 3601
 3614, 3627, 3640, 3653, 3666, 3679, 3692, 3705, 3718, 3731, 3744, 3757, 3770, 3783, 3796, 3809
 3822,
*Elset, elset=_Surf-7_S4, internal, instance=Part-1-1
 3823, 3836, 3849, 3862, 3875, 3888, 3901, 3914, 3927, 3940, 3953, 3966, 3979, 3992, 4005, 4018
 4031, 4044, 4057, 4070, 4083, 4096, 4109, 4122, 4135, 4785, 4798, 4811, 4824, 4837, 4850, 4863
 4876, 4889, 4902, 4915, 4928, 4941, 4954, 4967, 4980, 4993, 5006, 5019, 5032, 5045, 5058, 5071
 5084,
*Surface, type=ELEMENT, name=Surf-7
_Surf-7_S2, S2
_Surf-7_S4, S4
*Elset, elset=_Surf-8_S2, internal, instance=Part-1-1
  650,  663,  676,  689,  702,  715,  728,  741,  754,  767,  780,  793,  806,  819,  832,  845
  858,  871,  884,  897,  910,  923,  936,  949,  962,  975,  988, 1001, 1014, 1027, 1040, 1053
 1066, 1079, 1092, 1105, 1118, 1131, 1144, 1157, 1170, 1183, 1196, 1209, 1222, 1235, 1248, 1261
 1274, 7020, 7033, 7046, 7059, 7072, 7085, 7098, 7111, 7124, 7137, 7150, 7163, 7176, 7189, 7202
 7215, 7228, 7241, 7254, 7267, 7280, 7293, 7306, 7319, 7332, 7345, 7358, 7371, 7384, 7397, 7410
 7423, 7436, 7449, 7462, 7475, 7488, 7501, 7514, 7527, 7540, 7553, 7566, 7579, 7592, 7605, 7618
 7631, 7644
*Elset, elset=_Surf-8_S4, internal, instance=Part-1-1
 1912, 1925, 1938, 1951, 1964, 1977, 1990, 2003, 2016, 2029, 2042, 2055, 2068, 2081, 2094, 2107
 2120, 2133, 2146, 2159, 2172, 2185, 2198, 2211, 2224, 2237, 2250, 2263, 2276, 2289, 2302, 2315
 2328, 2341, 2354, 2367, 2380, 2393, 2406, 2419, 2432, 2445, 2458, 2471, 2484, 2497, 2510, 2523
 2536, 5734, 5747, 5760, 5773, 5786, 5799, 5812, 5825, 5838, 5851, 5864, 5877, 5890, 5903, 5916
 5929, 5942, 5955, 5968, 5981, 5994, 6007, 6020, 6033, 6046, 6059, 6072, 6085, 6098, 6111, 6124
 6137, 6150, 6163, 6176, 6189, 6202, 6215, 6228, 6241, 6254, 6267, 6280, 6293, 6306, 6319, 6332
 6345, 6358
*Surface, type=ELEMENT, name=Surf-8
_Surf-8_S2, S2
_Surf-8_S4, S4
*End Assembly
** 
** MATERIALS
** 
*Material, name=e200
*Elastic
200000., 0.3
** 
** BOUNDARY CONDITIONS
** 
** Name: BC-1 Type: Displacement/Rotation
*Boundary
Set-3, 1, 1
Set-3, 2, 2
** Name: BC-2 Type: Displacement/Rotation
*Boundary
Set-4, 1, 1
** ----------------------------------------------------------------
** 
** STEP: Step-1
** 
*Step, name=Step-1, nlgeom=NO
*Static
1., 1., 1e-05, 1.
** 
** LOADS
** 
** Name: Load-1   Type: Pressure
*Dsload
Surf-3, P, 16.
** Name: Load-2   Type: Pressure
*Dsload
Surf-6, P, 8.
** Name: Load-3   Type: Pressure
*Dsload
Surf-7, P, 10.
** Name: Load-4   Type: Pressure
*Dsload
Surf-8, P, 12.
** 
** OUTPUT REQUESTS
** 
*Restart, write, frequency=0
** 
** FIELD OUTPUT: F-Output-1
** 
*Output, field, variable=PRESELECT
** 
** HISTORY OUTPUT: H-Output-1
** 
*Output, history, variable=PRESELECT
*End Step
